*Heading
** Job name: Job-1 Model name: Model-1
** Generated by: Abaqus/CAE 6.11-3
*Preprint, echo=NO, model=NO, history=NO, contact=NO
**
** PARTS
**
*Part, name=Lower
*Node
      1,   19.3417377,  -3.0401992e-10,          -5.
      2,   19.3417377,           0.,          25.
      3,   20.6358318, -0.170370862,          25.
      4,   20.6358318, -0.170370862,          -5.
      5,  -19.3417377,           0.,          -5.
      6,  -19.3417377,           0.,          25.
      7,  -20.6358318, -0.170370862,          -5.
      8,  -20.6358318, -0.170370862,          25.
      9,         -90.,   -18.756443,          -5.
     10,         -90.,   -18.756443,          25.
     11,         -90.,   -23.756443,          -5.
     12,         -90.,   -23.756443,          25.
     13,         -20.,          -5.,          -5.
     14,         -20.,          -5.,          25.
     15,          20.,          -5.,          -5.
     16,          20.,          -5.,          25.
     17,          90.,   -23.756443,          25.
     18,          90.,   -18.756443,          25.
     19,          90.,   -18.756443,          -5.
     20,          90.,   -23.756443,          -5.
** ... 144 like lines cut
*Element, type=R3D4
1,  1, 21, 24,  4
2, 21, 22, 23, 24
3, 22,  2,  3, 23
 4,   5,  25, 101,  32
 5,  25,  26, 102, 101
 6,  26,   6,  27, 102
 7,  32, 101, 103,  31
 8, 101, 102, 104, 103
 9, 102,  27,  28, 104
10,  31, 103, 105,  30
11, 103, 104, 106, 105
12, 104,  28,  29, 106
13,  30, 105,  21,   1
14, 105, 106,  22,  21
15, 106,  29,   2,  22
16,  7, 33, 25,  5
17, 33, 34, 26, 25
18, 34,  8,  6, 26
19,   9,  35, 107,  48
20,  35,  36, 108, 107
** ... 136 like lines cut
*Element, type=R3D3
76,  14, 138,  53
77, 137,  14,  69
78,   2,  16,   3
79, 137,   6,   8
80,  53, 138,  42
81,  42, 138,   8
100,  15, 140,  96
101, 139,  15,  72
102,   5,  13,   7
103, 139,   1,   4
104,  96, 140,  85
105,  85, 140,   4
*Node
    165,           0.,           0.,          10.
*Nset, nset=Lower-RefPt_, internal
165, 
*Nset, nset=Set-Lower
 165,
*Elset, elset=_Surf-Lower_SPOS, internal, generate
   1,  168,    1
*Surface, type=ELEMENT, name=Surf-Lower
_Surf-Lower_SPOS, SPOS
*Elset, elset=Lower, generate
   1,  168,    1
*End Part
**  
*Part, name=LowerPlate
*Node
      1,         -90.,   19.5312996,          -5.
      2,          90.,   19.5312996,          -5.
      3,          90.,   14.5312996,          -5.
      4,         -90.,   14.5312996,          -5.
      5,         -90.,   19.5312996,          25.
      6,          90.,   19.5312996,          25.
      7,          90.,   14.5312996,          25.
      8,         -90.,   14.5312996,          25.
      9,         -75.,   19.5312996,          -5.
     10,         -60.,   19.5312996,          -5.
     11,         -45.,   19.5312996,          -5.
     12,         -30.,   19.5312996,          -5.
     13,         -15.,   19.5312996,          -5.
     14,           0.,   19.5312996,          -5.
     15,          15.,   19.5312996,          -5.
     16,          30.,   19.5312996,          -5.
     17,          45.,   19.5312996,          -5.
     18,          60.,   19.5312996,          -5.
     19,          75.,   19.5312996,          -5.
     20,          75.,   14.5312996,          -5.
** ... 58 like lines cut
*Element, type=R3D4
 1,  1,  9, 30,  4
 2,  9, 10, 29, 30
 3, 10, 11, 28, 29
 4, 11, 12, 27, 28
 5, 12, 13, 26, 27
 6, 13, 14, 25, 26
 7, 14, 15, 24, 25
 8, 15, 16, 23, 24
 9, 16, 17, 22, 23
10, 17, 18, 21, 22
11, 18, 19, 20, 21
12, 19,  2,  3, 20
13,  1, 31, 57,  9
14, 31,  5, 32, 57
15,  9, 57, 58, 10
16, 57, 32, 33, 58
17, 10, 58, 59, 11
18, 58, 33, 34, 59
19, 11, 59, 60, 12
20, 59, 34, 35, 60
** ... 56 like lines cut
*Node
     79,           0.,   19.5312996,          10.
*Nset, nset=LowerPlate-RefPt_, internal
79, 
*Nset, nset=Set-LowerPlate
 79,
*Elset, elset=_Surf-LowerPlate_SPOS, internal, generate
  1,  76,   1
*Surface, type=ELEMENT, name=Surf-LowerPlate
_Surf-LowerPlate_SPOS, SPOS
*Elset, elset=LowerPlate, generate
  1,  76,   1
*End Part
**  
*Part, name=Model
*Node
      1,         -20.,          80.,           0.
      2,         -20.,   76.5217361,           0.
      3,         -20.,   73.0434799,           0.
      4,         -20.,   69.5652161,           0.
      5,         -20.,   66.0869598,           0.
      6,         -20.,    62.608696,           0.
      7,         -20.,   59.1304359,           0.
      8,         -20.,   55.6521721,           0.
      9,         -20.,    52.173912,           0.
     10,         -20.,    48.695652,           0.
     11,         -20.,    45.217392,           0.
     12,         -20.,   41.7391319,           0.
     13,         -20.,   38.2608681,           0.
     14,         -20.,    34.782608,           0.
     15,         -20.,    31.304348,           0.
     16,         -20.,    27.826086,           0.
     17,         -20.,    24.347826,           0.
     18,         -20.,    20.869566,           0.
     19,         -20.,    17.391304,           0.
     20,         -20.,    13.913043,           0.
** ... 1996 like lines cut
*Element, type=C3D8R
   1,  169,  170,  194,  193,    1,    2,   26,   25
   2,  170,  171,  195,  194,    2,    3,   27,   26
   3,  171,  172,  196,  195,    3,    4,   28,   27
   4,  172,  173,  197,  196,    4,    5,   29,   28
   5,  173,  174,  198,  197,    5,    6,   30,   29
   6,  174,  175,  199,  198,    6,    7,   31,   30
   7,  175,  176,  200,  199,    7,    8,   32,   31
   8,  176,  177,  201,  200,    8,    9,   33,   32
   9,  177,  178,  202,  201,    9,   10,   34,   33
  10,  178,  179,  203,  202,   10,   11,   35,   34
  11,  179,  180,  204,  203,   11,   12,   36,   35
  12,  180,  181,  205,  204,   12,   13,   37,   36
  13,  181,  182,  206,  205,   13,   14,   38,   37
  14,  182,  183,  207,  206,   14,   15,   39,   38
  15,  183,  184,  208,  207,   15,   16,   40,   39
  16,  184,  185,  209,  208,   16,   17,   41,   40
  17,  185,  186,  210,  209,   17,   18,   42,   41
  18,  186,  187,  211,  210,   18,   19,   43,   42
  19,  187,  188,  212,  211,   19,   20,   44,   43
  20,  188,  189,  213,  212,   20,   21,   45,   44
** ... 1498 like lines cut
*Nset, nset=Set-Model, generate
    1,  2016,     1
*Elset, elset=Set-Model, generate
    1,  1518,     1
*Nset, nset=_PickedSet4, internal, generate
    1,  2016,     1
*Elset, elset=_PickedSet4, internal, generate
    1,  1518,     1
*Elset, elset=_Surf-Model_S1, internal, generate
 1381,  1518,     1
*Elset, elset=_Surf-Model_S4, internal, generate
   23,  1518,    23
*Elset, elset=_Surf-Model_S6, internal, generate
    1,  1496,    23
*Elset, elset=_Surf-Model_S3, internal
    1,    2,    3,    4,    5,    6,    7,    8,    9,   10,   11,   12,   13,   14,   15,   16
   17,   18,   19,   20,   21,   22,   23,  139,  140,  141,  142,  143,  144,  145,  146,  147
  148,  149,  150,  151,  152,  153,  154,  155,  156,  157,  158,  159,  160,  161,  277,  278
  279,  280,  281,  282,  283,  284,  285,  286,  287,  288,  289,  290,  291,  292,  293,  294
  295,  296,  297,  298,  299,  415,  416,  417,  418,  419,  420,  421,  422,  423,  424,  425
  426,  427,  428,  429,  430,  431,  432,  433,  434,  435,  436,  437,  553,  554,  555,  556
  557,  558,  559,  560,  561,  562,  563,  564,  565,  566,  567,  568,  569,  570,  571,  572
  573,  574,  575,  691,  692,  693,  694,  695,  696,  697,  698,  699,  700,  701,  702,  703
  704,  705,  706,  707,  708,  709,  710,  711,  712,  713,  829,  830,  831,  832,  833,  834
  835,  836,  837,  838,  839,  840,  841,  842,  843,  844,  845,  846,  847,  848,  849,  850
  851,  967,  968,  969,  970,  971,  972,  973,  974,  975,  976,  977,  978,  979,  980,  981
  982,  983,  984,  985,  986,  987,  988,  989, 1105, 1106, 1107, 1108, 1109, 1110, 1111, 1112
 1113, 1114, 1115, 1116, 1117, 1118, 1119, 1120, 1121, 1122, 1123, 1124, 1125, 1126, 1127, 1243
 1244, 1245, 1246, 1247, 1248, 1249, 1250, 1251, 1252, 1253, 1254, 1255, 1256, 1257, 1258, 1259
 1260, 1261, 1262, 1263, 1264, 1265, 1381, 1382, 1383, 1384, 1385, 1386, 1387, 1388, 1389, 1390
 1391, 1392, 1393, 1394, 1395, 1396, 1397, 1398, 1399, 1400, 1401, 1402, 1403
*Elset, elset=_Surf-Model_S5, internal
  116,  117,  118,  119,  120,  121,  122,  123,  124,  125,  126,  127,  128,  129,  130,  131
  132,  133,  134,  135,  136,  137,  138,  254,  255,  256,  257,  258,  259,  260,  261,  262
  263,  264,  265,  266,  267,  268,  269,  270,  271,  272,  273,  274,  275,  276,  392,  393
  394,  395,  396,  397,  398,  399,  400,  401,  402,  403,  404,  405,  406,  407,  408,  409
  410,  411,  412,  413,  414,  530,  531,  532,  533,  534,  535,  536,  537,  538,  539,  540
  541,  542,  543,  544,  545,  546,  547,  548,  549,  550,  551,  552,  668,  669,  670,  671
  672,  673,  674,  675,  676,  677,  678,  679,  680,  681,  682,  683,  684,  685,  686,  687
  688,  689,  690,  806,  807,  808,  809,  810,  811,  812,  813,  814,  815,  816,  817,  818
  819,  820,  821,  822,  823,  824,  825,  826,  827,  828,  944,  945,  946,  947,  948,  949
  950,  951,  952,  953,  954,  955,  956,  957,  958,  959,  960,  961,  962,  963,  964,  965
  966, 1082, 1083, 1084, 1085, 1086, 1087, 1088, 1089, 1090, 1091, 1092, 1093, 1094, 1095, 1096
 1097, 1098, 1099, 1100, 1101, 1102, 1103, 1104, 1220, 1221, 1222, 1223, 1224, 1225, 1226, 1227
 1228, 1229, 1230, 1231, 1232, 1233, 1234, 1235, 1236, 1237, 1238, 1239, 1240, 1241, 1242, 1358
 1359, 1360, 1361, 1362, 1363, 1364, 1365, 1366, 1367, 1368, 1369, 1370, 1371, 1372, 1373, 1374
 1375, 1376, 1377, 1378, 1379, 1380, 1496, 1497, 1498, 1499, 1500, 1501, 1502, 1503, 1504, 1505
 1506, 1507, 1508, 1509, 1510, 1511, 1512, 1513, 1514, 1515, 1516, 1517, 1518
*Elset, elset=_Surf-Model_S2, internal, generate
   1,  138,    1
*Surface, type=ELEMENT, name=Surf-Model
_Surf-Model_S1, S1
_Surf-Model_S4, S4
_Surf-Model_S6, S6
_Surf-Model_S2, S2
_Surf-Model_S3, S3
_Surf-Model_S5, S5
** Section: Section-Titan
*Solid Section, elset=_PickedSet4, material=Titan
,
*End Part
**  
*Part, name=Tool
*Node
      1,          85.,         -20.,           0.
      2,          85.,         -20.,          20.
      3,          85.,         100.,          20.
      4,          85.,         100.,           0.
      5,         -85.,         -20.,           0.
      6,         -85.,         100.,           0.
      7,         -85.,         -20.,          20.
      8,         -85.,         100.,          20.
      9,         -90.,         -20.,          -5.
     10,         -90.,         100.,          -5.
     11,          90.,         100.,          -5.
     12,          90.,         -20.,          -5.
     13,         -90.,         100.,          25.
     14,          90.,         100.,          25.
     15,          90.,         -20.,          25.
     16,         -90.,         -20.,          25.
     17,          85.,          -5.,          20.
     18,          85.,          10.,          20.
     19,          85.,          25.,          20.
     20,          85.,          40.,          20.
** ... 461 like lines cut
*Element, type=R3D4
1,  1,  2, 17, 30
2, 30, 17, 18, 29
3, 29, 18, 19, 28
4, 28, 19, 20, 27
5, 27, 20, 21, 26
6, 26, 21, 22, 25
7, 25, 22, 23, 24
8, 24, 23,  3,  4
 9,   5,  31, 161,  57
10,  31,  32, 162, 161
11,  32,  33, 163, 162
12,  33,  34, 164, 163
13,  34,  35, 165, 164
14,  35,  36, 166, 165
15,  36,  37, 167, 166
16,  37,  38, 168, 167
17,  38,  39, 169, 168
18,  39,  40, 170, 169
19,  40,   1,  30, 170
20,  57, 161, 171,  56
** ... 437 like lines cut
*Element, type=R3D3
289, 384,   8,   6
290, 127, 128,  80
291, 383,   4,   3
292,  47,  96,  95
293,  45,  97,  46
294,  44,  99,  98
295, 127,  80, 382
296, 380,  77, 378
297,  46,  96,  47
298,  46,  97,  96
299,  45,  98,  97
300,  44,  98,  45
301, 379,  76, 123
302, 381, 380, 125
303, 381, 125, 126
304, 380, 124, 125
305, 380, 378, 124
306, 379, 378,  76
307, 382, 126, 127
308, 381,  79,  78
** ... 28 like lines cut
*Node
    482,           0.,          40.,          20.
*Nset, nset=Tool-RefPt_, internal
482, 
*Nset, nset=Set-Tool
 482,
*Elset, elset=_Surf-Tool_SPOS, internal, generate
   1,  505,    1
*Surface, type=ELEMENT, name=Surf-Tool
_Surf-Tool_SPOS, SPOS
*Elset, elset=Tool, generate
   1,  505,    1
*End Part
**  
*Part, name=Upper
*Node
      1,         -20.,          85.,          -5.
      2,         -20.,          85.,          25.
      3,          20.,          85.,          25.
      4,          20.,          85.,          -5.
      5,         -90.,   103.756447,          -5.
      6,         -90.,   103.756447,          25.
      7,         -90.,   98.7564468,          -5.
      8,         -90.,   98.7564468,          25.
      9,  -20.6358318,    80.170372,          -5.
     10,  -20.6358318,    80.170372,          25.
     11,  -19.3417377,          80.,          -5.
     12,  -19.3417377,          80.,          25.
     13,   19.3417377,          80.,          -5.
     14,   19.3417377,          80.,          25.
     15,   20.6358318,    80.170372,          -5.
     16,   20.6358318,    80.170372,          25.
     17,          90.,   98.7564468,          25.
     18,          90.,   103.756447,          25.
     19,          90.,   103.756447,          -5.
     20,          90.,   98.7564468,          -5.
** ... 144 like lines cut
*Element, type=R3D4
 1,   1,  21, 101,  30
 2,  21,  22, 102, 101
 3,  22,   2,  23, 102
 4,  30, 101, 103,  29
 5, 101, 102, 104, 103
 6, 102,  23,  24, 104
 7,  29, 103, 105,  28
 8, 103, 104, 106, 105
 9, 104,  24,  25, 106
10,  28, 105,  27,   4
11, 105, 106,  26,  27
12, 106,  25,   3,  26
13,   5,  31, 107,  44
14,  31,  32, 108, 107
15,  32,   6,  33, 108
16,  44, 107, 109,  43
17, 107, 108, 110, 109
18, 108,  33,  34, 110
19,  43, 109, 111,  42
20, 109, 110, 112, 111
** ... 136 like lines cut
*Element, type=R3D3
76,   3, 138,  84
77,  14,  16, 137
78,  12,   2,  10
79, 137,   3,  25
80,  84, 138,  73
81,  73, 138,  16
100,   1, 140,  39
101, 139,  11,   9
102,  13,   4,  15
103, 139,   1,  30
104,  39, 140,  60
105,  60, 140,   9
*Node
    165,           0.,          80.,          10.
*Nset, nset=Upper-RefPt_, internal
165, 
*Nset, nset=Set-Upper
 165,
*Elset, elset=_Surf-Upper_SPOS, internal, generate
   1,  168,    1
*Surface, type=ELEMENT, name=Surf-Upper
_Surf-Upper_SPOS, SPOS
*Elset, elset=Upper, generate
   1,  168,    1
*End Part
**  
*Part, name=UpperPlate
*Node
      1,          90.,    64.530899,          -5.
      2,          90.,    59.530899,          -5.
      3,         -90.,    59.530899,          -5.
      4,         -90.,    64.530899,          -5.
      5,          90.,    59.530899,          25.
      6,         -90.,    59.530899,          25.
      7,         -90.,    64.530899,          25.
      8,          90.,    64.530899,          25.
      9,          75.,    59.530899,          -5.
     10,          60.,    59.530899,          -5.
     11,          45.,    59.530899,          -5.
     12,          30.,    59.530899,          -5.
     13,          15.,    59.530899,          -5.
     14,           0.,    59.530899,          -5.
     15,         -15.,    59.530899,          -5.
     16,         -30.,    59.530899,          -5.
     17,         -45.,    59.530899,          -5.
     18,         -60.,    59.530899,          -5.
     19,         -75.,    59.530899,          -5.
     20,         -75.,    64.530899,          -5.
** ... 58 like lines cut
*Element, type=R3D4
 1,  1,  2,  9, 30
 2, 30,  9, 10, 29
 3, 29, 10, 11, 28
 4, 28, 11, 12, 27
 5, 27, 12, 13, 26
 6, 26, 13, 14, 25
 7, 25, 14, 15, 24
 8, 24, 15, 16, 23
 9, 23, 16, 17, 22
10, 22, 17, 18, 21
11, 21, 18, 19, 20
12, 20, 19,  3,  4
13,  5, 31, 57, 43
14, 31, 32, 58, 57
15, 32, 33, 59, 58
16, 33, 34, 60, 59
17, 34, 35, 61, 60
18, 35, 36, 62, 61
19, 36, 37, 63, 62
20, 37, 38, 64, 63
** ... 56 like lines cut
*Node
     79,           0.,    59.530899,          10.
*Nset, nset=UpperPlate-RefPt_, internal
79, 
*Nset, nset=Set-UpperPlate
 79,
*Elset, elset=_Surf-UpperPlate_SPOS, internal, generate
  1,  76,   1
*Surface, type=ELEMENT, name=Surf-UpperPlate
_Surf-UpperPlate_SPOS, SPOS
*Elset, elset=UpperPlate, generate
  1,  76,   1
*End Part
**  
**
** ASSEMBLY
**
*Assembly, name=Assembly
**  
*Instance, name=Lower-1, part=Lower
*End Instance
**  
*Instance, name=LowerPlate-1, part=LowerPlate
*End Instance
**  
*Instance, name=Model-1, part=Model
*End Instance
**  
*Instance, name=Tool-1, part=Tool
*End Instance
**  
*Instance, name=Upper-1, part=Upper
*End Instance
**  
*Instance, name=UpperPlate-1, part=UpperPlate
*End Instance
**  
*Rigid Body, ref node=Lower-1.Lower-RefPt_, elset=Lower-1.Lower
*Rigid Body, ref node=LowerPlate-1.LowerPlate-RefPt_, elset=LowerPlate-1.LowerPlate
*Rigid Body, ref node=Tool-1.Tool-RefPt_, elset=Tool-1.Tool
*Rigid Body, ref node=Upper-1.Upper-RefPt_, elset=Upper-1.Upper
*Rigid Body, ref node=UpperPlate-1.UpperPlate-RefPt_, elset=UpperPlate-1.UpperPlate
*End Assembly
*Amplitude, name=Amp-1
             0.,              0.,              1.,              1.
** 
** MATERIALS
** 
*Material, name=Titan
*Density
 4.5e-09,
*Elastic
112000., 0.32
*Plastic
  1.,  0.
 75., 0.1
125., 0.2
140., 0.3
160., 0.4
165., 0.5
167., 0.6
175.,  1.
** 
** INTERACTION PROPERTIES
** 
*Surface Interaction, name=IntProp-1
*Friction
 0.4,
** ----------------------------------------------------------------
** 
** STEP: Step-1
** 
*Step, name=Step-1
*Dynamic, Explicit
, 0.05
*Bulk Viscosity
0.06, 1.2
** 
** BOUNDARY CONDITIONS
** 
** Name: Fix-Lower Type: Displacement/Rotation
*Boundary, amplitude=Amp-1
Lower-1.Set-Lower, 1, 1
Lower-1.Set-Lower, 3, 3
Lower-1.Set-Lower, 4, 4
Lower-1.Set-Lower, 5, 5
Lower-1.Set-Lower, 6, 6
** Name: Fix-LowerPlate Type: Displacement/Rotation
*Boundary, amplitude=Amp-1
LowerPlate-1.Set-LowerPlate, 1, 1
LowerPlate-1.Set-LowerPlate, 3, 3
LowerPlate-1.Set-LowerPlate, 4, 4
LowerPlate-1.Set-LowerPlate, 5, 5
LowerPlate-1.Set-LowerPlate, 6, 6
** Name: Fix-Tool Type: Displacement/Rotation
*Boundary, amplitude=Amp-1
Tool-1.Set-Tool, 1, 1
Tool-1.Set-Tool, 2, 2
Tool-1.Set-Tool, 3, 3
Tool-1.Set-Tool, 4, 4
Tool-1.Set-Tool, 5, 5
Tool-1.Set-Tool, 6, 6
** Name: Fix-Upper Type: Displacement/Rotation
*Boundary, amplitude=Amp-1
Upper-1.Set-Upper, 1, 1
Upper-1.Set-Upper, 3, 3
Upper-1.Set-Upper, 4, 4
Upper-1.Set-Upper, 5, 5
Upper-1.Set-Upper, 6, 6
** Name: Fix-UpperPlate Type: Displacement/Rotation
*Boundary, amplitude=Amp-1
UpperPlate-1.Set-UpperPlate, 1, 1
UpperPlate-1.Set-UpperPlate, 3, 3
UpperPlate-1.Set-UpperPlate, 4, 4
UpperPlate-1.Set-UpperPlate, 5, 5
UpperPlate-1.Set-UpperPlate, 6, 6
** Name: Load-LoerPlate Type: Displacement/Rotation
*Boundary, amplitude=Amp-1
LowerPlate-1.Set-LowerPlate, 2, 2
** Name: Load-Lower Type: Displacement/Rotation
*Boundary, amplitude=Amp-1
Lower-1.Set-Lower, 2, 2
** Name: Load-Upper Type: Displacement/Rotation
*Boundary, amplitude=Amp-1
Upper-1.Set-Upper, 2, 2, -560.
** Name: Load-UpperPlate Type: Displacement/Rotation
*Boundary, amplitude=Amp-1
UpperPlate-1.Set-UpperPlate, 2, 2
** 
** INTERACTIONS
** 
** Interaction: Lower
*Contact Pair, interaction=IntProp-1, mechanical constraint=KINEMATIC, cpset=Lower
Lower-1.Surf-Lower, Model-1.Surf-Model
** Interaction: Tool
*Contact Pair, interaction=IntProp-1, mechanical constraint=KINEMATIC, cpset=Tool
Tool-1.Surf-Tool, Model-1.Surf-Model
** Interaction: Upper
*Contact Pair, interaction=IntProp-1, mechanical constraint=KINEMATIC, cpset=Upper
Upper-1.Surf-Upper, Model-1.Surf-Model
** 
** OUTPUT REQUESTS
** 
*Restart, write, number interval=1, time marks=NO
** 
** FIELD OUTPUT: F-Output-1
** 
*Output, field, variable=PRESELECT
** 
** HISTORY OUTPUT: H-Output-1
** 
*Output, history, variable=PRESELECT
*End Step
** ----------------------------------------------------------------
** 
** STEP: Step-2
** 
*Step, name=Step-2
*Dynamic, Explicit
, 0.05
*Bulk Viscosity
0.06, 1.2
** 
** BOUNDARY CONDITIONS
** 
** Name: Load-Lower Type: Displacement/Rotation
*Boundary, amplitude=Amp-1
Lower-1.Set-Lower, 2, 2, 560.
** Name: Load-Upper Type: Displacement/Rotation
*Boundary, amplitude=Amp-1
Upper-1.Set-Upper, 2, 2
** 
** OUTPUT REQUESTS
** 
*Restart, write, number interval=1, time marks=NO
** 
** FIELD OUTPUT: F-Output-1
** 
*Output, field, variable=PRESELECT
** 
** HISTORY OUTPUT: H-Output-1
** 
*Output, history, variable=PRESELECT
*End Step
** ----------------------------------------------------------------
** 
** STEP: Step-3
** 
*Step, name=Step-3
*Dynamic, Explicit
, 0.05
*Bulk Viscosity
0.06, 1.2
** 
** BOUNDARY CONDITIONS
** 
** Name: Load-Lower Type: Displacement/Rotation
*Boundary, amplitude=Amp-1
Lower-1.Set-Lower, 2, 2
** Name: Load-UpperPlate Type: Displacement/Rotation
*Boundary, amplitude=Amp-1
UpperPlate-1.Set-UpperPlate, 2, 2, -174.618
** 
** INTERACTIONS
** 
** Interaction: Lower
*Contact Pair, op=DELETE, cpset=Lower
Lower-1.Surf-Lower, Model-1.Surf-Model
** Interaction: LowerPlate
*Contact Pair, interaction=IntProp-1, mechanical constraint=KINEMATIC, cpset=LowerPlate
LowerPlate-1.Surf-LowerPlate, Model-1.Surf-Model
** Interaction: Upper
*Contact Pair, op=DELETE, cpset=Upper
Upper-1.Surf-Upper, Model-1.Surf-Model
** Interaction: UpperPlate
*Contact Pair, interaction=IntProp-1, mechanical constraint=KINEMATIC, cpset=UpperPlate
UpperPlate-1.Surf-UpperPlate, Model-1.Surf-Model
** 
** OUTPUT REQUESTS
** 
*Restart, write, number interval=1, time marks=NO
** 
** FIELD OUTPUT: F-Output-1
** 
*Output, field, variable=PRESELECT
** 
** HISTORY OUTPUT: H-Output-1
** 
*Output, history, variable=PRESELECT
*End Step
** ----------------------------------------------------------------
** 
** STEP: Step-4
** 
*Step, name=Step-4
*Dynamic, Explicit
, 0.05
*Bulk Viscosity
0.06, 1.2
** 
** BOUNDARY CONDITIONS
** 
** Name: Load-LoerPlate Type: Displacement/Rotation
*Boundary, amplitude=Amp-1
LowerPlate-1.Set-LowerPlate, 2, 2, 193.374
** Name: Load-UpperPlate Type: Displacement/Rotation
*Boundary, amplitude=Amp-1
UpperPlate-1.Set-UpperPlate, 2, 2
** 
** OUTPUT REQUESTS
** 
*Restart, write, number interval=1, time marks=NO
** 
** FIELD OUTPUT: F-Output-1
** 
*Output, field, number interval=30
*Node Output
A, RF, U, V
*Element Output, directions=YES
EVF, LE, PE, PEEQ, PEEQVAVG, PEVAVG, S, SE, SVAVG
*Contact Output
CSTRESS, 
** 
** HISTORY OUTPUT: H-Output-1
** 
*Output, history, variable=PRESELECT
*End Step
